Results/PF_SnapMode/Switch_Open/POWER_REPORT.txt

SYMMETRICAL COMPONENT POWERS BY CIRCUIT ELEMENT (first 3 phases)                                     Excess Power

Element                      Term    P1(kW)   Q1(kvar)       P2         Q2      P0      Q0       P_Norm      Q_Norm     P_Emerg    Q_Emerg

"Vsource.SOURCE"              1        0.0       -0.0        0.0        0.0     0.0    -0.0
"Vsource.SOURCE"              2        0.0        0.0        0.0        0.0     0.0     0.0
"Vsource.HV_SOURCE1"          1     -139.1      -46.2       -0.0       -0.0    -0.0    -0.0
"Vsource.HV_SOURCE1"          2        0.0        0.0        0.0        0.0     0.0     0.0
"Vsource.HV_SOURCE2"          1     -100.8      -33.3       -0.0       -0.0    -0.0    -0.0
"Vsource.HV_SOURCE2"          2        0.0        0.0        0.0        0.0     0.0     0.0
"Transformer.TRANSFORMER1"    1       39.1       13.3        0.0        0.0    -0.0    -0.0        0.0        0.0        0.0        0.0
"Transformer.TRANSFORMER1"    2      -39.1      -13.1       -0.0       -0.0     0.0     0.0
"Transformer.TRANSFORMER2"    1       20.8        7.0        0.0        0.0     0.0     0.0        0.0        0.0        0.0        0.0
"Transformer.TRANSFORMER2"    2      -20.8       -6.9       -0.0       -0.0     0.0     0.0
"Line.LV_LINE1"               1       39.1       13.1        0.0        0.0    -0.0    -0.0        0.0        0.0        0.0        0.0
"Line.LV_LINE1"               2      -35.0      -11.5       -0.0       -0.0     0.0     0.0
"Line.LV_LINE2"               1       20.8        6.9        0.0        0.0    -0.0    -0.0        0.0        0.0        0.0        0.0
"Line.LV_LINE2"               2      -19.7       -6.5       -0.0       -0.0     0.0     0.0
"Line.SWITCH_CONNECTION"      1        0.0        0.0        0.0-4.21E-0036     0.0 6.4E-0039        0.0        0.0        0.0        0.0
"Line.SWITCH_CONNECTION"      2        0.0       -0.0        0.0       -0.0     0.0    -0.0
"Load.LOAD1"                  1      100.0       32.9        0.0        0.0     0.0     0.0
"Load.LOAD2"                  1       80.0       26.3        0.0        0.0     0.0     0.0
"Load.LOAD3"                  1       35.0       11.5        0.0        0.0    -0.0    -0.0
"Load.LOAD4"                  1       19.7        6.5        0.0        0.0    -0.0    -0.0

Total Circuit Losses =    5.3 +j    2.3
